* C:\Users\Administrator\Desktop\MP158_MPSmart_0331_2015\MP158_small_enery_efficient_offline_regulator_startup.sxsch
.PRINT  ALL
.options PSP_NPT=1001
.TRAN 40m 0
C1 5 0 10u
C2 6 0 4.7u
C3 3 9 110n IC=0
C4 11 9 2.2u IC=0
C5 2 9 470p
X$COUT 16 0 ELEC_CAP_L13$1
X$D3 0 9 DIODE_SPICE_V2$2
X$D4 4 3 DIODE_SPICE_V2$3
V$IPROBE1 13 4 0.0
.PRINT I(V$IPROBE1)
.GRAPH IPROBE1#P axisType="auto" persistence=1 graphName="OUTPUT" curveLabel="IL"
+ analysis="tran|pop" xLog="auto" yLog="lin" colour=43520  nowarn=true disabled=false
+ 
V$IPROBE2 4 15 0.0
.PRINT I(V$IPROBE2)
.GRAPH IPROBE2#P axisType="auto" persistence=1 graphName="OUTPUT" curveLabel="ILOAD"
+ analysis="tran|pop" xLog="auto" yLog="lin"  nowarn=true disabled=false 
V$IPROBE3 12 8 0.0
.PRINT I(V$IPROBE3)
.GRAPH IPROBE3#P axisType="auto" persistence=1 graphName="INPUT" curveLabel="IIN"
+ analysis="tran|pop" xLog="auto" yLog="lin"  nowarn=true disabled=false 
V$IPROBE4 6 7 0.0
.PRINT I(V$IPROBE4)
.GRAPH IPROBE4#P axisType="auto" persistence=1 graphName="INPUT" curveLabel="IDRAIN"
+ analysis="tran|pop" xLog="auto" yLog="lin"  nowarn=true' disabled=false 
V$IPROBE5 4 16 0.0
.PRINT I(V$IPROBE5)
.GRAPH IPROBE5#P axisType="auto" persistence=1 graphName="OUTPUT" curveLabel="ICOUT"
+ analysis="tran|pop" xLog="auto" yLog="lin"  nowarn=true' disabled=false 
X$L2 5 6 L2$TP_LOSSYL$4
X$LOUT 9 13 LOUT$TP_LOSSYL$5
.PRINT V(4)
.GRAPH :4 axisType="grid" persistence=1 graphName="OUTPUT" curveLabel="VOUT" analysis="tran|pop"
+ order="Vout" xLog="auto" yLog="auto" colour=16711680  nowarn=true disabled=false
+ PROBEREF=Probe1  
.PRINT V(6)
.GRAPH :6 axisType="auto" persistence=1 graphName="INPUT" curveLabel="VDRAIN" analysis="tran|pop"
+ xLog="auto" yLog="auto" colour=8323072  nowarn=true disabled=false PROBEREF=Probe2
+  
E$Probe3$TP_DIFFPRB 17 0 11 9 1 
.PRINT V(17)
.graph :17 axisType="auto" persistence=1 graphName="IC" curveLabel="VCC" analysis="tran|pop"
+ xLog="auto" yLog="lin" yUnit="V"  nowarn=true disabled=false 
E$Probe4$TP_DIFFPRB 18 0 12 14 1 
.PRINT V(18)
.graph :18 axisType="auto" persistence=1 graphName="INPUT" curveLabel="VIN" analysis="tran|pop"
+ xLog="lin" yLog="lin" yUnit="V"  nowarn=true' disabled=false 
E$Probe5$TP_DIFFPRB 19 0 2 9 1 
.PRINT V(19)
.graph :19 axisType="auto" persistence=1 graphName="IC" curveLabel="VFB" analysis="tran|pop"
+ xLog="auto" yLog="lin" yUnit="V"  nowarn=true disabled=false 
R1 4 0 1k
R2 3 2 4.99k
R3 2 9 7.5k
R4 8 10 500
R5 15 0 1K
RLOAD 15 0 70
X$U1 7 11 9 2 MP158
X$U2 5 10 14 0 INPUT_CONFIG_0400$6
VIN 12 14 SIN VOFFSET=0 APEAK=220 FREQ=50 TDELAY=0 OFF_UNTIL_DELAY=YES DAMP_COEF=0
.subckt INPUT_CONFIG_0400$6  7 8 9 10
.NODE_MAP OUTN 10
.NODE_MAP OUTP 7
.NODE_MAP N 9
.NODE_MAP P 8
X$D1 8 7 DIODE_SPICE_V2$7
X$D2 5 7 DIODE_SPICE_V2$8
X$D3 10 9 DIODE_SPICE_V2$9
X$D4 10 6 DIODE_SPICE_V2$10
X$SW1 5 9 BASIC_SWITCH$11
X$SW2 8 6 BASIC_SWITCH$12
.subckt BASIC_SWITCH$12  1 2
V$IPROBE1 1 2 0.0
.ends BASIC_SWITCH$12

.subckt BASIC_SWITCH$11  1 2
V$IPROBE1 1 2 0.0
.ends BASIC_SWITCH$11

.subckt DIODE_SPICE_V2$10  1 2
.NODE_MAP P 1
.NODE_MAP N 2
!R_DBODY 1 2 MRDM IC=1
.MODEL MRDM VPWLR  NSEG=3  X0=-100 Y0=-1.26471e-10  X1=0.546877714286377  Y1=6.91641714035124e-13
*+ X2=0.633375 Y2=0.2
+ X2=0.606857254928036  Y2=0.0626165937624906
+ X3=0.633375 Y3=0.2
.ends DIODE_SPICE_V2$10

.subckt DIODE_SPICE_V2$9  1 2
.NODE_MAP P 1
.NODE_MAP N 2
!R_DBODY 1 2 MRDM IC=1
.MODEL MRDM VPWLR  NSEG=3  X0=-100 Y0=-1.26471e-10  X1=0.546877714286377  Y1=6.91641714035124e-13
*+ X2=0.633375 Y2=0.2
+ X2=0.606857254928036  Y2=0.0626165937624906
+ X3=0.633375 Y3=0.2
.ends DIODE_SPICE_V2$9

.subckt DIODE_SPICE_V2$8  1 2
.NODE_MAP P 1
.NODE_MAP N 2
!R_DBODY 1 2 MRDM IC=1
.MODEL MRDM VPWLR  NSEG=3  X0=-100 Y0=-1.26471e-10  X1=0.546877714286377  Y1=6.91641714035124e-13
*+ X2=0.633375 Y2=0.2
+ X2=0.606857254928036  Y2=0.0626165937624906
+ X3=0.633375 Y3=0.2
.ends DIODE_SPICE_V2$8

.subckt DIODE_SPICE_V2$7  1 2
.NODE_MAP P 1
.NODE_MAP N 2
!R_DBODY 1 2 MRDM IC=1
.MODEL MRDM VPWLR  NSEG=3  X0=-100 Y0=-1.26471e-10  X1=0.546877714286377  Y1=6.91641714035124e-13
*+ X2=0.633375 Y2=0.2
+ X2=0.606857254928036  Y2=0.0626165937624906
+ X3=0.633375 Y3=0.2
.ends DIODE_SPICE_V2$7

.ends INPUT_CONFIG_0400$6

?@@--START ENCRYPTION: "MP158"
?@@W0VpgwtGRmGeZqWIqJnv0TlqhNdQu4NXRKmMPVzcIVjJLQXu+PrlHtFGNySs3Y2wqqbs?##
?@@DJ6FPQE2T4M2WGb/fyxEDy3ENOPo3CSqmQlHNuFXbxvBi8EeImsI0LQZLDTr0YUWWUI1?##
?@@AT+tc+1i/zmWlDC18A11lJ64CctFCYwUXOZOo7yMd6hocUN8KydiQO2ySDAH3Yf6mI8l?##
?@@IltC2biQoPUNJQ/Fv7mdQuq/iTC2VMYAcrB7DndrtrSrMhR1iadrH5SudNmRU0TkP/r+?##
?@@T96dYkRGz5bKgM+7DprvY1bNVIzccvZxQ8ajpEZkRJFeY0E65KmgRGcK3RJe9OJwf8hd?##
?@@UOawugiga82TEerE8xep8f+t6qEdL38+dAxxK2GUrKKtxMINbV/DGu0PuXV5p+VJKgLC?##
?@@3aM0ZpyluhbL3Xa9Im6230Bx/P1mavzECYHtRrWs2RK1fLYsKli/VgVvVud6k6dZBFAb?##
?@@Co14kNYeV7O+ki93fT3xEaUbDZWfe6nWbz4MkNkFxQytbBBXttnqD1jrl/XQzGCWjVM5?##
?@@NxDTGe/JIAljyk0GsfbLd9IAVovvhNLbtQR2zDqbAQocfVwoPr/jyp9mVtvPCy3uiWg0?##
?@@7CRSlN5Yp4H6jFv1U13hpJ/M1/59wSHpN6twsaqJS++XJxDfRrNiWousd1OHYVN7zg8+?##
?@@nX1uTxyGYtpeyV6W+Dc0WjZiYDikkmt5Qlgm1ti/3KR6FqkycFGXL2fF0doRZY3lQl7k?##
?@@elDSOlkzKpHwOheE1/IGBVaD75mB5kYbAUBV5g3ENLrL+B+o9XkP3gvot/03Qt80YuaJ?##
?@@P1Rs3G/sfLK7hbZZRbkHWM4sgXMymwmnrGRbwmeTIv6v0JFldxJDoR+ye7p7o+z9hKdO?##
?@@lC/CMz5WzeqaVf5t1xIwYIBBqeBPg46kg61baoSoOGPPQwyGw8S/wI2JpQOHNsIiUW19?##
?@@QWaSjYUITl/Yx6+rpKKm1lDgiyG86TGrElSs2feJ9f7BXTnqNn3v3hAoVOLgk7+bRvvi?##
?@@NgfAwT5SbUmHmXyBV8Y9wi6bVnLoPYu/aHiQK2inb/2zxGEhvs3QzjuY0a+v87Qj7TfI?##
?@@szoS56GJMoPPrdTp3mhJt7jCYBa6JiFF++4zG+N+/6a3XoucH/gIGoIFcrlNksAaV6PF?##
?@@UOawugE49FWWow6bA78zEPVL3hOBqcMPYuRtiKz0ws6OWBrZwTJh42cAu4B6nN6oQKBk?##
?@@+ZRLEUH1RRUA2QUyaLKmPoZwVMcezejv/8caogZCua9XrNN/+5cGeJ6UnyUC+t8kK6a9?##
?@@vpjksxnkSuI5QwZqYdshe22gjzb83oGBsXKqBfS74iDxQxuVkLToOARftom0mbIyromu?##
?@@zyspkcxjYuHLm3hrhuY/qbN7nShYaXx0z01V4XWsyDdugndjXr/vFrqVCEr6dhuCLlQr?##
?@@TMRkWb2m4DsGWCq+S0K8114x3G0baDzbkt6ycNd/Q7mBiiurcRsKSHVeXWzdkxurJn0c?##
?@@3aM0Zp7uLKyFh2oKCcC3VYUWF9CFkxaO1pH/97ZolyjoTJe5duCLrxNi8wirB3+hl8qy?##
?@@5vDggn3q1sj+EAiwbvYK9wGcih2Rp9+t9TOwIM/dHgEKlzugKOcMV88gad1sX10SAhiR?##
?@@u3+rqpWKHQb0Z8hrB7gd6J4Dp1lSr6ORPcmQIZYU4ypdoufSbsq5/exzbM5z/pKb9Xc/?##
?@@OBjmcSCIVpiEXgAyiBRQQhVlZDRgfvMEBktptwTwUAtMLzuZtnBVRVW7xP2WJGjyV+GK?##
?@@WTRc1VP6MfH7yrk0hL6cCoYuoYU9rTtAJ9wL6Ww8jjUjnMOnEiu6ZW3b2wiyGOYcQXUO?##
?@@psoaamzBRqgxMkZWkGU8Yh/sSwuXqcgluVvUD2G4Kxk0nD0mXGqjc4/wAwXG65J5NcN8?##
?@@kyev29Q5xdQypnBSZyjweMjBIf9gewd/hT8LdSC0QB7yzXl5nRkNx0A+3sIXkViFFxAp?##
?@@7CRSlKnQ1m5tVueGQaPKxJMklqMbUioSMuf5hO3z1xpgEah7p0T15gfWI3fX/seMKuwh?##
?@@Nf6taLjBLJ31McR2f2V1X2L2R2yWSCLlABkiesQBKGi83yez8UxFSfjazRoDwJZ86Opl?##
?@@FvRdtZDHth/FjQE1wqcMEy+A5v2lnf949+EP3Z9/TC7alJagSbfVkZWugeW5U3W0+x4E?##
?@@jwRjeQ5CMVcW+olalFY9QDxxJY/n1tcJaGNBPYHZO5S5ttxUevBhOwBSE5l9IFprUB2J?##
?@@9GnrVykjfZJPW3RG9RLC7yVGtpKnhEQf0ZwfZ6kMiSJ7xrKwWRMjxAOQuy9vNmcMcCZV?##
?@@ha6kBuEXz02Fzml58/w921JF83zXW/zmV1Psf1cOFS7Vu3wbs8ZCMRDq4PlUjvBHFZHI?##
?@@PkxYgyhXYtQtubAFFe05VBaP3Dkx7Kt3OHByiLCv6scrtNJ/ZAO1BBNmDxH30RON8tjH?##
?@@Q3e4PSQVSwv/tGo5O/IjtEx2lThnH7OrKkvBQk/pb2aReNwGuT0ORDW9fifIu5qSzdc5?##
?@@bNfHZIyISWe0VIU7P7oUNWPr7CXpeb3iecLG2HmDLW+6e9kapAyqEVZjgbU2i5Iky4Vj?##
?@@ha6kBqAKFxLNUgOGmg6Z7mN4MbtbDUGPJiM7NthvR5QG7mfdChiUdGu7djQTYO6+7NKp?##
?@@SrM+qPsz6CRiAUrkMRF7b32toCDRHkHKu4PKoNXpoE1aHJKLFGdj7NCsIGvhpaWHkNMM?##
?@@K6ju9FZQ0qDEIjoNgqHA0tXhjHX/3O3or2m3rQBj9xw/F5YkRkOj1tD84go/XkWJeI1c?##
?@@KI+06+5fBRWDOg7Nevjfkyj2ZsAxAzKzSyVZ28fwdsZTON6ggfkFyw1fD9ys8tUIypzP?##
?@@lTjVjDmNomkTjXIJshl/JcHvDVVf+Z34kRKRlq0Q3LV2RIfRfwegaeO7uEy98X542owV?##
?@@TtWKCYXDbsujPkNoBRGpjIEWbL3aDSgwsw5srLNWxm9bcE5gaMPLwtVZGOqHPMdNjyF3?##
?@@T96dYmLPjzrTOZncjvacCGxD60Hl8/z0zzRNOvpM1jR9nXaTChvtRwrfpB0ir3TGn9j7?##
?@@IEocKOOMT4bAZv18yufSm53dI+lnYbFwzWzmVlT+bNL2YA1/e0YMx7VHVHsxSFPsa6Vl?##
?@@Nf6taKK/uSMTGp8JBG2IwTJy05xPMuiXcxNALbJ02STlOQ8ZcdJTOpVCJwTAKOJj6b53?##
?@@vpjks5xEQxmPkopeYoqu7m1InjGz1nBJHWYjm7xkbbhF7MSgKPyZKR8zE+Sh8lNWi842?##
?@@dzaZMaSfr2m8NOqcipsEW708NfhwZYxgZVjAPyKFdArd8EzcXwVMlC2R1SvnZ02epNfh?##
?@@bNfHZIbMUKKDrLsBSpq49bleSAXpDne+C8g/UrHGC+MAWCFS0jRCefSF+e79LKg6+O+2?##
?@@nX1uTwJYIjINdMhg7AQKVLpEzxg6hHKv17LRkLk3TjRM54fqPExX/FJen3/HSr/9wEUp?##
?@@wrswFELWJmhQH1m2WneO30eDa292S6HB7Mu+9HERZGQF92+92rFfPVpolgMrC3UoCjQ7?##
?@@t1xeSKWLdopCyP0aOGPzNCcHH+b38NBBWf0kR5e8RTE1jK1+9vfGSn0EEyta8I4XrkpR?##
?@@FOM3BLuq72e/0xM9pa1Q1rhfK+HRy5Z7FzmCxhPkQKC2ch/VbnWPIUo6OkxI7JuRW8QB?##
?@@xdVqHY7TfBmNmg3LmlvPdXRhuWOomGyr60BMgdZ9WtbyTlmpXjcHuTBUngLcVldvfMeV?##
?@@PkxYgzHq74hMeVG8Nvd2V3gSZUh4kOwmxdQxCnRdkVr6SLx+RcxzmouptD49Dd3DjFrv?##
?@@5/nz2g0lHfGYjBm9JFoBpT0BxeLk9h1GGs7kXnFvD7GETdnHf6kkAkjpiH27f6aXK5g9?##
?@@qNtAG/mPJWjt5k0ZX0Trzp5/l5dfzYdEBzhFt7jeSvoqdzKVPnTH04+FzEOUK2k61XZ/?##
?@@xdVqHd7picrtjnC2jJItfPoAzFr0CankN+lbRlwkI5yc49SAPJ92WvRZDVHgMy1yLbwb?##
?@@PkxYg13SQVzzRNN5NgvdMSi8Xlpm+lp+CkuBVHKPooqk9Gh56GPx9AlvSLR+6iFA/3Ju?##
?@@L8s6VnreEeO6UQgYq+ejqOW7KsxjBqk/s21YGhjDdy27JFB0GocT1l5yRqhjVrzLXLZQ?##
?@@EMDqogL/ZNaVPvgWeWiP1DoBcT4khKhmpEmndneNzLuBXWLJO3hVo18zyOsTB3aJ45wW?##
?@@QWaSjYUpfZ1E4Fyjet2v7UBcyjMPm+i+p4FttGWsuKJcTDZ/1UwHVBxpfaX2Z28Ktb27?##
?@@gpRr/UVsioMIZINKCeRzP3nKfvf1q3cmyWDsnTTHf0lfqOwaPkigNSehrXxf24efx+BG?##
?@@D7jXShsx4KWGHvcclcoxoA5wQqg6/o46Mz9Oavxw6Yk2tG8CfGBaS85jHB3RNaEYY3ha?##
?@@UOawuu+GBMKWtQN7dMh8rcOg+iufTS4LfARYSRjf3HnR3GHZU15hr9FYoKtSQ/5p+YK9?##
?@@yfe2f2TyuSxb4QoLVOBi53FEps/mv05fclUVIOHgBhZlF+Ik7ckY23Un0PY47luc/Q7j?##
?@@vpjks8Bkm5332TITOP97KqimHaxtOLa2srIpTEIC1B93Y5ViFUIHhz4BncVWtyDl4ipa?##
?@@94IkYHKGdQtmDdKZl35LTfXX9Vbxj6upG4sZg+cLCAMBAj4xElsRvIhcdUrNsi+AJ8FV?##
?@@yO6jJlFMR4CW/mHPoxhvBBVThZTsYkjRsp0p3nihSF/5LkN/ktaSJG2KZ3qtbendxTj8?##
?@@qeRTcyGC83KRrCXHqVX3x5gUzqv1Vn+SOUcpFJzcjF4L5ZuDDnWyGmJri6EnDtwW5dVu?##
?@@+pxeadp8csKF7P0k0V719TOW2WeyzBa0D4Wj7QaJyfRK4Gx+T3HwTippH03iXFu8k8rs?##
?@@Q3e4PZlXI7yaUimt+k7MuQ7wpptP6Dzc2WWYiaG/xR8yp9i8VWhMNcB038gynlOhKLvP?##
?@@+Is3uCRekjzRC1+naKnZo4BIEA3mF3t7gwX9wWSxAgPqHj9Wc42893iGTAUr9QEU7QmI?##
?@@gYxYpIJKrdKBaXXFzcOXfb1Tfpz1I1j/HSWXjMZbD1xRUC4I+4oKLDMQ9kkBPwlqnlGi?##
?@@xt19dg8IzHZlDJ5aTLQj2nh2ktkZyFh66ARG5yALpFudsh12yBnNqUzewO4UWMEXdS3q?##
?@@C5WL6RK6htzYvIaZms0e92T0TMwyefF27/BEOgLoMtYaAmPZMU8rqVRvIJ/hfcQo1TLu?##
?@@tEIlP8J6oixxDIDqMgJvEoKXs+3NgqFa+jfY7o4DiTR7h1+hR3FEXug7+WUXsI4NUMPH?##
?@@FetKXPp+TNcnlILf3padJI5gdbpM2p2j5jwoW1GHFiH4IFGJvp7/9LV00AZYuxKiav2u?##
?@@bujtFe5cyeHttMht4CLNw9kZE3VyIyt8nrzhFt2e3GkpJun14H2hvbXb2ltQF0DLqLvZ?##
?@@82DY/ghbhdVlYYTWfUsBe473OfXHbHVU7KADN56bDDyxJzmilfjNvoXe/uLIAq+WwVAd?##
?@@9GnrV3+aXZPeKcTkiZf0LFWViNHNOLUQwTZQAeiZVSHn8cdb78UIwhCAC6YVCFiYf/u2?##
?@@5ejNKZgIUwTZk7Lcq/5IBePT4+Bq6rR5OwULOHxE5BJ7Xzjajfabh1lzPdDu2Sr5Ufkw?##
?@@ygDJ15Udk5WU9x7GV8qJS5ZTuSiIyPOClMJ3Jq0bpgQb+gMnvA3dN28WzTtwpea7xJe/?##
?@@7z6MnelQSVu9PSZ+xdH/0pVf+hWNbGnxNceT+8cFJTqTmMdqNFToM1kIF71jdYl5+hXv?##
?@@NPaZEPU3P77p80jM74yTrwV2XSp+Iurx0NuX/Mm35FBeisUU/WKLgtJ1aoG6NhSxJ3DQ?##
?@@YXn1mIJlUiTWOjQEvD0RnST0giyIXqlGdvUaI4fLReuWRw1YIORZqwDmu1ghMhaBx74v?##
?@@ZqRUUu/AUt5YgT6Cr7LoAuK0mT2P9cKuGDZNJOy8BfeTQhK2BcvClZUMK/meYJovO35m?##
?@@5/nz2igfeAXXP32HlQBJd0FDV8hoCrnk2fOFww/H01v2Vz6FZDv0DCcELQYDfh846FRz?##
?@@GAWDZZ4kQ5NKwO+ntdNiOI668QoWbJbzUEHuBmaNinrxzQnuWR/HcexoYGVxCZ6ouVSj?##
?@@5ejNKWjpgx8tsDNaYjj6GFRZgIye7vMoYZmPUuNcIzko5oaFe7AcRG9oc1QWZm95KvZv?##
?@@wrswFKdvmktEQAp39ZTMtHTBHYE8x0PT5q5kVFRpxXEnCJHicp53leRavhUZAIO1x+KV?##
?@@F/xwDSQZO05295ph70U7u74+qyxueVcB2MbLVhNtcBH0FZQO8910WP+49qRDjMKfgok8?##
?@@MNNNrukvwLkimuLBS6iCb1Rho0Bbrv/shBa9FSpiYyKVDk9eNw41a9wSV3LSL4rpMuPB?##
?@@idHwZ5XkZMp5AjIcLlWpLVXchSTsfVultx+dti1a5RwzAnnYFhaIWvt2S/SvVhapY4lY?##
?@@6hMs4wT+vRvSDvQ/DYLO9RhaEwovcdYNeSfzSQWqTwCzqzGrJJbdh/DKSpTif/cy+Bx6?##
?@@C5WL6VuqLLJZmRfm3CkEWIBXf4yR3Yx0vIwSY6kINSP+6QGPInfjilty2BEIMHr4UGx3?##
?@@ZJIuoiCZR7ADIwBojpBRm+AYuWaV2oi811LLVv6SP0iM2KLl8zic3WdkPMan0JFrd3/A?##
?@@8U+yTtP1tb+mtvVOYQFSfLlZC2DsYGxRBSWjr27Op+MebarrRgK1tgj2RQ300PDdDYZo?##
?@@noWBp+ltuJDcaZtNwl/7wujz3Ci6K+waxq9NO18bPGGEovorAs6HK6SwXBBAow3Fj9yz?##
?@@e1jlkjsz3dXa26cJhg1qips7ry1zxeq6ntEjEK26oYI368rpT5NjpSxvTiYurg2S7Obd?##
?@@uGVyofP6XTeOI6oDhE4qlQ1QdAO1hyEACZ209QlmV5einWSyaDS03fKw2ff64RqFLvS6?##
?@@Ecn9+x/PdDXjBCeiaDvkdtv1pJz+EuACf6rt5UuwT+QIbi/7o4kGk1Vm9W8Wtxa4G9Qv?##
?@@kh6cg9WE9Drcm2zYMLcMO507pXsCMh0Agj/z6rfjQIy+Rn8UDLBQyZtsPY/jJ+uwPcpv?##
?@@n46U/3BwWNkiWMnioQnp+vOLIRuclNxDu4YGb2Cs7Zgp7BZ8TDF6mkadwwOzIYHILkX1?##
?@@KI+065VlOdFpXRDSZ4ltbddwytazc1ee4cUFpm8RaqRbpvajzZ6miHa8uypDCcis6oa9?##
?@@0TxPQhdrJSlkRC/Hs7ADrRWg98gKoyH6ujVlPZBdTgQWol2W8f82z+HosCMMr5Un5tem?##
?@@ziIWOUxv82pvBcH17uL81eHsTZGaXBJYC0O+fvXkrz6X8DmzxW1JwlmJ3WmQ56mH9+8F?##
?@@b/EAblUgeR40oap8UOjz9Ssagty+l45vdZRoEWPxMAgAE35B/0tYD2O63fBzKwzp+YLW?##
?@@YHDiQA+Qa+K/ZI5GvqjLIn8Ag9AxMnrPIoJfOoYInXy0YI/BSuVy3NbfivpkxBFwLUhM?##
?@@0TxPQk2WGGcDLjUVMQjWZ99oyrSkh/AiAKquZhanswpDvWY9ho9cA2XQfP40tv1ufPi2?##
?@@RpDxRtgHwpfc3JM9B41MO1BtGiiVIuiE5ZUKENXv2RhqWLSadwD281P22uYNXF+0bx6j?##
?@@A1DyJiGvqYV6DIFYdyud8y792WAMjyCwxSCpeOQpGsGVwL3HDpoRVDb2SFdxhzkwZjzl?##
?@@CHtR4MbENTRtcXWEzdpyIP0hYEHilbK0/oDwpb8a8uaPvAeKcUBXvVfHgnAYmRQ2e5cr?##
?@@1V6bozlWnvSjrfY5/4U4Rj7lhGblDcgpZlOOPvz2ce9fuwQxhqTuJ5kwOEPUp2zpE9nX?##
?@@fnIem0DyvNbmuJQfCx6vkeM5j6oba+xpWCioYJRCGdIUXlas5i1gRQGXST279LWN2sRu?##
?@@/8e9I9fTxqjAloSoYUPZhSoK7mnYYZeSfd+6B49QhKkf51pqZgPGCA2DmjDyaUDeLv/b?##
?@@RH/LllP9EeibQbiOfEOwq0jm+qjBO3J3ePyeDoUWaE85g6202Bu5++XDoaNEXExUGfy6?##
?@@XVaoN3tKlY+rkILh+DNOzR9CsiZqRIqKK4UQrueltRgtKtFYXVDcTZ0NUKonzDhTlIvr?##
?@@FvRdtXXFANGJ0tPPAmemaL5fPwcW8Mmid1jWSsWUJjjN7Fb8A9jnGYjgI1oZh5GyMTxe?##
?@@VyM2JRQ9f/KMFhLyvH+gCDEn4NbYqLUjRzEOZiSKP70/mHyGtiQZShteFgeWLRMC53oE?##
?@@ADe5HWgZ4sPMMG8gQ1M3PSw5f9LNVDRVwsSvSRGzmBa2XAi+gRoRzjrwiEwtiH1xSRtl?##
?@@2YHoBXaDIH6UBGJNJ8rvwA2zY3wz1ul0j34Q6zSBQW6Hnw575Cuc36JuleA8F9rBTD8s?##
?@@NgfAwYWvetvfwOCtR5KyjBEIaz//djpIDiqv7EcV9ges3BfImTMbT/6VFdrGnEqs+s8p?##
?@@82DY/irtCC4bretf4X/fqL0xFxeJk7/GgIMu3bbckSL7PzDTXWOTFmttf0YenHtmPenZ?##
?@@DJ6eQT5IIdjV1kj5x0GQJh9EXR4NET5q0EQcp033P7MeEZnFQlopiDaw9EWoRpRiFwix?##
?@@CYRlOHiJsJ381arm+ioh+WuA1D0QmlZqwEblpLk4FYFYL85/g1apdMvxJQRsOQz6kJ4L?##
?@@+pxeaSpAk7pSRJSn64KrwGJYBOH6lDn2c7wgBeOHn6yUTp/61iN52WtwSooszyfYDhCn?##
?@@cxNMzx6U/CWhWy4b3UxeeDf9vKJqko0tgkrolmMNk/Ryn1Ebmt4sRK3nVK7G+F8ChUTz?##
?@@MNNNritkEL1k4zarp93ghoqkPsxp/6vEpDgB5VCoFf9zjOWM194NrtPsVXUcJ//e0tzd?##
?@@PUNFK9XIKcOQPh8JsBOi4dzBJ8mTP/1JHSr5NAb0ie4sOjUyBIFNnt2l4EGpGo7qvPjW?##
?@@mmM1RUZNoyIKD72R8S2cHu7EYdC84IQA45ikPzqZ5HurRkMFkO0x4I/sry518ceQDVj+?##
?@@m2tInrd2BGDvYHZK46z4AfApkk59JaAj0vaZlXWSeor1w+5gQ3r0ofkbqWyadI8te19X?##
?@@gINETIgq3ONoNpNH1N94WVP6OHASA4+U9YAWM9mTx6FJxkIKJ7oW3ENLsMSnDTvHWVcQ?##
?@@4cWAyDp/3KaAHqAhd0Lb7UfrxXyAPPgkqdqdDOm80ruR8wBkVnyuEqrAhL8zL+liGaHW?##
?@@quxmyxe520seA2qyE3BJ81HGrxujx3xrrA7iLxpeLsCz1fT5vqVi1Oh6BqTYl8GCGk/o?##
?@@6xs/OxucfBUNQhtALL1HbP8c7mlMxo/uPoWAr0R6idGOQrFJooypHfANQzw2QYySRAOV?##
?@@1FaIS6doLL22C0yK7Vxnh5l7FQniqSmVVZouJPEzDjo4BSt+b3cE1yzAFIbKr+a6JMMe?##
?@@ha6kBiRtitiqYwmK4MO2+677RkNejZgi6/A4bNlfKFh4gVyLUVmXJrdqV6AOrRTI5dPJ?##
?@@Qm6l5RHc2zDZYob/bhJoiyUpo00zRMQi3mPw7iMe0sALSC88jyQmVMSdrROFR3nQUFpl?##
?@@NxDTGf5YggFlTT3tx6RXJPfNy1m80MRlMH/8PXNHXJu01bKasKkLsQxTGporhAnNKwGH?##
?@@8Eaf9ViFFzQ1MShUVxkUmPdKMD3ia5lHw1BUGTfQ6AdLcUbquk8MQKRNH0kxLIkVmJF/?##
?@@Ecn9+0f4TK9TUctFwRApphF/djxD1KRC6yfGVjnjPUfBlPCNNoFEnWAsCfQZKAz955Dr?##
?@@ziIWOakHpc77M2ae0sbIsk8ezwECSHDqL4FtySRX0dqasXf9OIlqb8ypCZCec/VwNcBI?##
?@@dzaZMf268oW67KBJGjFpbx4opS45JdPZ4k3zMkdNdOob5vysOAUk/6SrUubFeMUWoWZn?##
?@@uGVyoS/6xqrDaO9PeKDLf9HhqeWmC1v95bH+VO7G4ydS6wvSqrBQdsVOHxEXAZdS5ISc?##
?@@JXV74kjGmAomSoGLyElPU/5hzZtkw+u9OX+uPEt3JkmkoqJbiRoaUCgdgKi2HIpg5EKd?##
?@@elDSOhiRUGSpPFaro+aVjeQ+X2ILtHYpKHorx7TSRw8OUGitnptW/twb9rUbWBi+rDH2?##
?@@w8NEbQLLJoE0vpBFMPkPe47arOpJETQpvRtuyeQkJ1RJYC1//oIi8SutbNGEGxI/S3CK?##
?@@nHRb9vjPuoDE2AoyMTc6Pt0UleUcRdLmdJD6YGUKSU5v7Laxt4hPcnX4Wlv/mup7xNga?##
?@@ha6kBthjHZKk8ET+LSW8evg1SGr4yYNuh6YXSq/Ck5MoNYu92u39J6J+GaPuY5QXizUY?##
?@@kh6cg1SME3QrB66cpZCdegZqu6YESHNNzLF33yMg77jE1ZLhtcjABgaUB3xpb0Js921U?##
?@@v6H3C0yAy4oH04NUfvCazEZjAxlDuHMJsLwFYecFUe0cF3NylWFHUdEIO2J2I1tu/54f?##
?@@+Is3uAD9xzKIaQ4iwudkwkhvC/g2tq6z7nX2MSqoYFbd8qm79hqry6B0mR+N9rIdibAt?##
?@@sSnsNhXQEzjbIU3oK9Iyc3hFWSW35umEwgD0BewMZHeZwlKFMxqBPRwD8xdhgFH3Nl2V?##
?@@UvjWax2WCxpi5A1M/yklAGELzSdhn9wVyb4/P7caeI9hq3bMcJVE6V3F3Uim3Nwiy6Eu?##
?@@w8NEbbpJELmu9PbcetsSjakoefpyseaneqZk8sJmnuHCFOWupkoUw9Pwoe8o0KPY7VlE?##
?@@5N+60Y387unqKEchRZ4iIkQg7XBbn/qvNQlMz4vvvto9Df9W2lppA8sGiip9IlxJ4dFJ?##
?@@fWkLQ3xVq746P8OHSJJiIYpa6aF81zko+3RK1N5nbc0zzBnLibAOzfIJka46MNYuT+ef?##
?@@4s6TIG163iixnwLQvMK9yvysmoubRsoP/ne26NwT1jxJEcy/gBciXU7g9L63yD4bm7dP?##
?@@7z6MncAIPixlljmjoIy67So0sHoXQAglkLRcfIFQQB16GYq44H2XPE+QPLJDIF43O+Lj?##
?@@BFkFfqVzTkgdZO9eekAyz5mtX5hx3tj+5h4/RFiPcdfpzKQYGVpzcDRCqnQZHbC3ypYq?##
?@@4cWAyOyi8Fg/vCgVjA5B5IKKV8i+nRB+7jlqK1+soNc82RKHD15z1XUxMT8j5Bg4bcBY?##
?@@Xl+7j+cphA0ODa57gZt2GygK6SJjH1uP+BArb2oG5U2a8CXBjgOF2oXdMMc7wtTH9N5l?##
?@@q/V5JOms9lcnGM6fgmuvFOW2nV/iioOWWVxWZOzOtov+JxuWXtc4MUJBNHM+tO8MmW+N?##
?@@hKaRrYlMPUr61kcd5Xoi5Vmpbxtgmr0V4Gj72NBuDARU7EUS21DdAwVunr0P046vVNJC?##
?@@9XH+r51OgI93FFg7Qx+M8mQlDC2TUtrg4e7qOe5cvNof4q1s3lBtaqbC9Bk30NouL69n?##
?@@/r+qyjLPwlm6fVlDD28wN84PshS2ze1dEjZ0wfhSA05ZSEROQ1NnguWuTngPn3DxEhta?##
?@@VyM2JZJwzLpUElN2TvfWn4Cq0G/nQDAKuHZ6U0yQG9Tyoe/3+dkUtOGhofjsf8OuHUkx?##
?@@eD6sicfT0JqdH3WhZhG30bEIMswczVSQulGNNJmKsN3+a68euKFy328BaJXw/AE9Br1W?##
?@@wbIdvFna5miKPrTduwPHCCsICVUZYoCjVsUJE5zc+tUglStEQM7sqfUHpv7mX8vSr/uc?##
?@@unaYUfbzFO5kyn9Pl7wOBMdaLxEDd4Jw7VTwDAIRKv7tnqmuGj7NCYGHosMDwVZxczN+?##
?@@cxNMz8rfpS7HhhYjz239wHItWrlCBd5Vg/87R7vqI+kxijhGb4+AsqHyo1Oeot677hkE?##
?@@HCfPx5KOB5mN5bFZ1280A5dC7pglfifO6AxgfQXs1lVfrrLV3hj+8Z1mEtewx8SRr6TA?##
?@@1V6bo1nqHyNQa+p8datJKUBxyRsOFWfuR3I9f+0w8Ion7xELtjSWNMjp+ZHOrnCAjmeo?##
?@@RpDxRp9qXHqk4YcGnj5RGDuJwoynXADC/aiIEyQwjA22wjxt0n+AT1pXcu+4ar/eb6k0?##
?@@00118x8p4ZAjZXGH6LA28BMWf41VCUecaEqsthuxH7wXc5FKMf1t9IivNIJe4vmnDqXj?##
?@@0DM86YTZUPJfUGsIVMWmI6qN4HBVLsHjabmetMBM81JJ8fWU+a4TX5pdBSC8pGTPk51J?##
?@@GQ6WvjenAFrxkQgBGUu85z2dHdEhPYi41vYGD1sQotR8Bq1xur0zhrLGqh+Nrynk3Duj?##
?@@quxmy6sXGvu6i1PWu0dz46PsqJHV8KR9g5jhoSpdOTpaBQARDcr9eJuqZZIDzUytcc8/?##
?@@b/EAbtsfU6p7tY7oFR2sWwhnHvGb3ZEeUk37cMYGEpvZnMZBT3VcNWFJBjsV6hzLrrTS?##
?@@FOM3BGmWzGoasFYtVuFlisBXBD+058M4kAH6x1TywqZgYz5veBAqa11F5N8wIj0PSU58?##
?@@LboUpb7FwAjmigVe1ORPj2EhOQUjk7FMzKHNB3+G49IFw07Res8l2+4jBmHCitGpqhau?##
?@@2on7XUl8GbzACnpNEMT+VWLJ7CF06sG8qiWlrNShOehKeKMvepkhxxoU8iSvo5wLE5Un?##
?@@X2fO6Dh7ujtb394HCZtzMkL0HKZwgeY7f9iB4NbI9vMnaVkyvjMmBhMNJlb90FQP0g6G?##
?@@hKaRrVqT6aNdRBoRYrsCA4vNJDINg8yWMvY+9KThwP8fms+o6sZBmOd4moRDQ7zp97OO?##
?@@OSH5yn4RdZTooUE9K0SzRX1dwt7P6nw5hivrmxKW177T505lyMZ8Obb4t6zB3SlNAWLF?##
?@@vpjksxpDvo6OrNDglSdGuzfCgNTBxjLEYOVSd+ylBjctPyZJUTJ1eNAJrBSAsiPCqXkB?##
?@@q/V5JC9+Pbdk/XJSB7aTUEbVOhHzLSnLIMpjgy3qUbdg7fbB+UpJHn3Lq07jvS8SHr/G?##
?@@UOawupp0xVez5ZgMaclIeKtKCq/2w+wz9mez+T6e6JNOj+IY8CDR+9MZa0wczyWZZIRe?##
?@@9XH+r8L9oqJPDX8ornXBM2idKFYkd71Crvs49XSgaHb0O/fmg7k2IWpUzaqPBrsahkgD?##
?@@kh6cg8o4+Ifpv85JiV2InJc2s7oK64TEXucpRMTj+ShSK02LvX3aCzmG6ncX8uZIClwh?##
?@@49aneHjqOqo6NVv35IokHhpD4otYUXsCFMRHaZqvincY1XjY10O4xxTljrlUJDNdd/Zz?##
?@@kA120nZgZhtNeZVXmLG+grNwshmmlLBJE3oY+WJtw3n9yr1QY+Moin3Z62ZRs2tlL5Uv?##
?@@/baXcnTXvTkfMv+MKVgU/cA4NarEdwiHA6VuqSC0XzmUNiffR3NlQo57xXYRk8uhESaT?##
?@@fnIemwsNb8oF8NNkiRE7hsPT1zRMNABS4AZ3Ui+MQysNYuWNlw0seUSv/XVXbP1aL7WW?##
?@@UwDpw8I1Uktef0U3Kq9QLnEumRFkfJ+FPgNwjKqBbOd+qA6zTif5LpEbU4RUgrxmZcAk?##
?@@sCDZ3qwQAWcc76zb3ImKfCb2E//po/lifPkLlON/8G5XOuHyz65qgzQcq6CZXyxlygSU?##
?@@5ejNKcOWDeFd69ZY5szGF652gCCEtkY27ENp/gFXSEQ3O2fYgrUi53s8xHXghbpq/43q?##
?@@AkjfzaG+glQlGyctiEN7I3yDtYX0ayT0pajC1dULAzQ/Oh4wa+Ltov5SWhXC9V31spWo?##
?@@00118+nlw7sPfxiVwLV1IqHUGdSRXOSISeMEydcGrjbMzgTBBNqIWxFl4Su8j4ar0VQ4?##
?@@3JohDuLmlE3LR/LOHhYkq8+50MdyPTEemsTXt/xHhuRQ/KhS20y3npcgHGyziXi9Y6Vp?##
?@@xdVqHfbw87TbWbOUv5BekiY7RtmPYTKk4/ycZGLLfw4MD8rt8EpoKOsMeuurpHyvbTVG?##
?@@jvxQIadDpj6f9zvm6DLaO0+OWOIT9Mekifnp9m6NaNeWPpMljAzc1DazzotuHe1C7BA2?##
?@@7z6MndoUGSwCad8x85fyvgmkET24dz1/Pv6VZ2jxHrt9qHp8aE2tAf5JwVQjLWV7wh/9?##
?@@xMxXxf2HbdWCNPta7ubunOaXZi6b4OdMeNfe7LOyf7I4BBRJpZfWlU4s1EourUP2jTP+?##
?@@pcEHEncqrE7x0/CTlUwXCahPiET7UOK93nzf+4uKnC8TeXDx/PYOZVwtzib1TQN+jpXR?##
?@@fnIem1Atpjz5Pi3b4V6tphF/qye10ubHgueudRhOTydcsuzI1smsYUfsgUZ/qq1cKYwI?##
?@@w8NEbQ5zYm3OSQfmpz4LUeIjC4dPxNd3C2+tY+NY0DNXlgDc/O2LVufeT2bT55FokUbp?##
?@@QF1/NFW45wtjn4Sl6iB6yRldxcN50TEIAQ/D+BKOvWcQjl0yGZQ4vcxdJVlZWpSD56/8?##
?@@FetKXANzb+ypn8nagz3hHhvNeWqkQ0tTVzX0S0W/2ufsLDZy1/uu8eMAz5r6G24bQTtC?##
?@@6hMs45y9cVkbrlumUDeSAYshRp6Kk94ytX0X93U3bD9sZdvsryjGRzVGx4W2j/YEOKhV?##
?@@I2RVMVb7DPTveHQKqlL7xwOLMv42NRT/9E6km8VdF5ZyZs1rkeTvZ/8vazYAuWg3EfCg?##
?@@eD6siQ6vzgqD+uZrs5huYi+xH+O2iGi/D553PHcrrn88hUTgPedmv35IQEJXUKyAm/02?##
?@@YXn1mLiEXtJ3eAxJDau9zQHuBFPh/bnKQQ3TpPa46YTSiKkS175yqMn9q14tL3GV1llv?##
?@@2on7Xf9m4OKhhNuUpkRnAU/dGcQWEsxOTu1IzJ2gi9qMwuNiAvXvk73wXDnGPEWSTedK?##
?@@a8+0DEgClFzHVirkLtcP4JvqkVIO86ci04KemDRrCCJcbHww837RK5oJTcW+MRUMwdZ9?##
?@@iMjdD/HqNU2cOS4jxcIJ6lf4gEhTd/HZeMRz4A8qIxjXIPn4XxRXwhBENO1aPWTBDze1?##
?@@xdVqHW79wywPa6+o7eIpox4imy976PIjVc2pwFdhJw27P2b8l3dRNNGcm/goAO6JmILR?##
?@@FvRdtRm9V69/jvYCVNYJrWysfud8Mqp8GQb3xqRnJTmIzUURNKrYZuiCQNQrVSHVo9Yo?##
?@@T96dYnYAxT12sOAC5PgppegQyUr7GpyYxCikVzZcI42lRa0xHiUTCiVSgYtsjACAkxiL?##
?@@DJ6eQUA55b16KKh/9g6eWz6Yr+Nzj5zC2nPnOeEBLYtZh8ZWKyeSeW71JA9HpHHqIQEd?##
?@@oZ+6sMOlRL2GeMxt809ZfLmqtuLQMHblcH0QsPmQgmysvf+Bls2FBl92sfq1DZB/us27?##
?@@sjH/jnQGM9U5aFYyGZmCi6axTS46Dgn3QyGO3C/SMf0g4n7wQtSxnVxrb3XeDSQLe4P0?##
?@@12/BVNrIn491H7vSLL4pzmjg8dNc6geF0EZ9pveQ6MRnM//RQ/O4NLFJ7a5ffl4/SygT?##
?@@NPaZEMW89j/VhpkOO9cmnhopKcqR95/LNj9iEXETx5vAYio+Ta0qjHohFOZ8OcDHcgsk?##
?@@oZ+6sAT7HcM3oOLjmTcaWYLz80Um48WrELqAMjFfreU5bEjier3585n4ZoxwVV1l7nps?##
?@@6hMs41USo6DsBpHv3CSxzHj3XHV3HZo3N0TkS5rpsBIjWFLhOjrpLgKYyfsW7FUjBmCu?##
?@@L8s6VlIvzRwecMBJ8Dflfa0G9AcoAKyvLFeBBRUzHgBOhPSmdG9lQv3ouOvl0GpIyPo9?##
?@@fGH46mNiLCj25M9d9xNCvbSZ5rVQZZzXXe1f77OvGrbo/H6g7fVweiU0fJErru2XUwjc?##
?@@beDavcAPqz/4eMaO8KKPmXBD9IkH8VYrMVKtucIFvyBUW5kFaRMWWBw7FEobzV/WlAka?##
?@@Hjn1eHvylsq0VMCGFOEI2w00fUqr+4g3uVje/H3QOHPtIupBZG/sqhuW2Di23ahYVDDx?##
?@@a8+0DMxbBemOtRWFiwLjU9v4sd3KqjB6FPRKbklAPwVXEBZnvQYECrYLqgPbWmdF+0jt?##
?@@iMjdD3NPLkAV5hgVu8B0i4iF9Y58HGwYkCTLu2Wtie06z6PPY5Jy6o3kMH4227dsxj5H?##
?@@xdVqHX5PxNl6HdWTyMmVz+I9Gnd7OYS9Dvd7K9wXr7cywIFBEM0fs3RiJRkZ3uMdUmDU?##
?@@lkDo5GYAEquZDhMuGEOfzkrQnKU0yMCDWyVwduyEsA3fKTPN4G8jfAvKiiarhqnP4SEX?##
?@@Y4obSdoqjQn6Z/acwWAIMFayx8kKqQcU+gSQpAh7dCEj5XnuyM75lb0WS0H5gmWHMptv?##
?@@TMRkWZsoxTqjzQe1+JYJgXtLSK6FxLsipe/wvLXCDwdukDJedW6RX7wKrBcwSAkPamKR?##
?@@wbIdvJCZjcyiWkooxZtVmv4Qq81L/nQR5n5mlpKGwPJn/3c4bojRosjoP5mPwE1CuDOC?##
?@@Xl+7j5erdanUFyOnbdcRZoN6eezIssGAEK0ZG8h7vgmOcnxcvt5BGgeH1pnqdVNUrGwE?##
?@@dzaZMZL4xD3c7PK4oYmFq/Ql0Ffh+1e/xtx4/EhkMThvsqm2yKZtvrql/IkwaVMZ4F6o?##
?@@FOM3BMfIqM5FazqagTtg5qSIzm1pvUumLSJhVyUjifZCr3OV2EyR4DzYY2vbX4vlY7Xc?##
?@@oZ+6sJa0hbVC19QmbJca7hl9gkfqB6aqqj34B+UFax1K81QjKgN+jbbR8jlrfvl2D1hb?##
?@@0kRimjIEsiTYDQhymE7At25gwMMuoJyBk1IBsH8RElW8F/d5sA3UXBKYtMlngRQgqe1s?##
?@@UwDpw7aXzqX0lbVJUDd0vryt6qCHaXoMELlQd57OWSCjQgo/7p+imwbuBQ/O28r1yONl?##
?@@VAn8HGMcrs3Xg5N6dvIryfhxjppGwIoKzM198Y+6HP6nqc3g8QQU9zWG3zcm+3Zeu/+g?##
?@@WTRc1aZQDFBxaBnN5KC+jVy2xVeqMxO6sce6dDv+TwGxgJCYOhmv/Hk6iCHIO/gYoudn?##
?@@psoaakF1XbwvmZwoTni9ahk2KfgZAGbvf3vO65HU4xPDMPsNqeBmXNTaU28h6ACYVf0U?##
?@@A1DyJmq4PomEN9FuhEVVgj30+M29jM4b2RmPpaky2jLek59T+qi8FOI/sF3UeyebrVOB?##
?@@/K2EGlE/tQnxHtMXnDyJcHl3rvOMIO/bacr2DHA2wLRjALcGAgosf0KPqXcXJKQna5Ps?##
?@@mVoi7RQqmRddzvL+ViqQ3UKC3HQ8msqcgydX87Cu+t1pu4uflFZOrfgip4iYSlA4wmh7?##
?@@quxmy6Dd11XvBEaNKWuW/QbTsuyYkoTTyq6Wc5h8gC1+KQAYVVcB4Y0r0BIvZpyefwIZ?##
?@@f3sx81xhR0OA8ZBIy32QLBEAjxxVjD5U6WJTRLbcYR2R4MbxiWVPxMNh+AYb7opOwhRq?##
?@@KI+06yumku+T/AGonTibIf6VQPDAh6uZ3Aq2mNzo7kx4eLXI6ERNuAF1PC3BovgxXsFu?##
?@@1V6bo20CFzL0nA/SrTfEtOuO2G8m6SD69Juv1DG6JuBGe4UKHCDq0SeFKepOhCz7JrA3?##
?@@psoaalCYjlfnowg5iMoh9mBEEqPEByEvppkMxfMmApFPw/tlWDItU42if/x6xm7d9s0B?##
?@@37RaF3p3GgjKdKwMpv8gRuVSytHuZtFjbeM6mexIfZeo61xJvRGCjikxMOzm9w/8rZHe?##
?@@SKIX9xLI0M99XgIaneTMKE6OCC07k1R3VkKwkv7DRAAtgWcNkeeHE00N53pMBI2o6GnV?##
?@@mVoi7R2OjOX/wou39GVjbMt5LR83XrIf0DR4eskmNQ1Lt0KtpczmyDXGIWixk0Y5wlvp?##
?@@5vDggnVbsl3giDrjjSxSwZbbu6LUJdPTRK9ezg6gtY2eU7w7hBCoe28oQBUrzFjn75Mb?##
?@@jwRjeQCDeOHlcz0dkn+aIZEvB80dT0fZHaZtZNjbWWOdfCcD3bPXLD825OOw04jPouD9?##
?@@HCfPxxvTLRFLI6pzp4aElL6CrapEd01hL8CnKoTID9Rx7zSo5cQixa3QyCZA1bS8x0V9?##
?@@AT/MdSsSHeHPf1oEK+BKdRSEPKgU0vUdek2KioOrzhUQOGiXV9D4P4hulWl8jI88Qljw?##
?@@Co14kAAM5lVd6bq6/22MP3KbmmUWkqEoAiePYJlyKeKD8jRA04n3SRilI19v+gVGwQ8V?##
?@@u3+rqjAqymd2h52PQ05L2ci/FZBXOukh3jZmEqtcCKd1hm9DHf1swVhtatY/RrlVGMaK?##
?@@WCtJfRSIbdAPqascwbEBV8bfHa/gTpWt5/bmm4ufvc8+RpnxB9Ee6TEz8YqBNEsqqW2e?##
?@@RYje7uX7a07EM4aX7egcIHs8ciDdiHhObRt9b3GDHSp9junblzOhcf/oklW0WFoo4BI9?##
?@@1meu/Ha0dtrZ3QuIRMU6e5+ISeffKEgo0hOPzp0Hf9OTtNdUYI8Q/INecidspvPzSS+i?##
?@@S7tRADFfMdSAFa6d6+7eyErL43NATOVA1wyDV0ixI7EL0H+YGhS3+kgbLqxSmGEtOdOR?##
?@@oJanWAUKjSK6Dw4tFfMbBghzgCN2IEdoWaMO6bic0vbn9/Upv1/gsogjd+3WnKh1BDgL?##
?@@+ZRLEXUqU628W1qj2AKusYnqTtvGY3SdJGzijO4JYwKqU6OXVgQtux198GtInSUUppND?##
?@@ygDJ18kXrG72QmE3A+Q8x6Hkwrqod6NHERXqBvk/bVqdLo5oEyn+fawCaz6gJK/wdOOQ?##
?@@Q3e4PRU4KiqvFvE8VgMnITE/DMJQg/xRRJxAPgeMOy/lzJ4r+nXL20TkubSyBiIUSZ0I?##
?@@6AEGMknoaI8N10syvk6tHx2zH7PRQ2imKg0sIJOmS0bjEstdHRN8q+3oNiIqfhcC7iOT?##
?@@Nf6taFMeDg90Al5X9tUQZDzU5vtDYe3IXIKokfQDZmEO3FdULVm6fqrei4VKfKd8xSGk?##
?@@unaYUQfGtwgciVwrQiLGPnoWHNNL+tQmU9daWL1P1Bvd0BLLyiY7+FW2DFBWNrTzg4r0?##
?@@Z6xnq/WSWELGgIEMdcdGLcFNqRFR0s2O8MhVNhLN1pAAmlga+DKI0rdjxgoZk618OH6t?##
?@@GAWDZeUWjGmK9YRYfEO2SW507YiXot6F884ClGHWcklEbzXE9PWlwiS/WLUzhhQGSbH+?##
?@@ZZtB+t84BoJuvhe84wzPDCjBCsayfayByEWv73IMDzhslsCiteKH//gsoMv2U7mH82yq?##
?@@noWBp6mNWERpamL7RWK2VRDa4sxDKKRbjqa34GhNNuqYIq5+1mfqWFDX9JyQk1pAPo9S?##
?@@00118zdH5pLJK2AR0ZBXE5UjJ02m8SQL5+bYbdNMuRT6Yd7p6ko8MOGr9va0JgVLPan2?##
?@@0DM86Sa99dCRJkzokkmIjsPtHax7bQCbH/8dEjWcPujYV+mGAgxUL9DZXsMOjUS+JaDi?##
?@@tUs4l7p4Oe5wpZcGKKTcOQdhB5TGlkXy8NuP9mn8DVX0CwsNB0piabdCUdUi2Oh6lhWD?##
?@@jvxQIYCkuTA/dkxLFxwH6Sd7LvENy+tU7h95K6Fxhz/Ux2tyy5hL0C8wLe6LP4223DFr?##
?@@W0WChq+Slidi8PAdzmL8tW/ltrdXvl4XjHpHLy8h3yF4vWUuVqmTK1tTwLIND9YnAW6x?##
?@@1FaIS7j91Y9kxeG76RioLy57bfxshaSk4KH0AIa7Um4UvAjIfvTkvqHxbrcVMHfGC9JY?##
?@@cQImHlVpyg/5jHEprLIiJRVdb67GwQYUir/5RX9gIlc+PUVRYf3rcvFtJA3nt7NMqPkk?##
?@@kh6cgyC5j5gmrsUMh0pk40vLshlM7jv0wHpQ2B2V7qWgawdpcp28a9cYZ4CrJ4NJBQT3?##
?@@W0WChhvvtPPqQnqMbBM6veI4L+rMZWtNi/b5dks37rDi3v//5lHopcVHw2vuqTdtIzFF?##
?@@pLn0uasPOv3GDjxqcL+roHxZXstl+iSq1K2WuhTnKXA3AnDSUWGQK/vhHpa6iPk0wTBr?##
?@@OSH5ymSjeuv0EKyc/wWmWtwCia3eNpYsomV9FH2tcIBgi8qetyv55FVZSRJTo3nhQKsd?##
?@@1meu/HtjksSsl3eVdSYWXc3JXDQY9Y/hS0kM+kOP+pbnjdrpdzIY6svnhfBtLb/Axrud?##
?@@6xs/O+AaW5RIsLPXuD24yPUBv3ix5Ycnclexh9BTT66U/emxRhbSF6cOvakMAWDfuGhN?##
?@@FOM3BIo52k5Dm4mMuABo5vVz01NtBagosistVcTKdQOyKs8TR1S/AHugXSrYbaMNCUJM?##
?@@CYRlOHyYM+GNonnoyVTGmBeZMYDIo6d2SFGz/8tpkb4qvqiOMEW568Ap/9hUBGpFzrfw?##
?@@Co14kDksm8jAWnAKde74NlGtYtD4Yd57Eev2tJnwJCuI07kI6g/zDfd+op3dPiqCK6AJ?##
?@@S7tRACAU5NWWzaQXEJfaOVGpivRklSYNF84fEFqJf0RMDPvyrgLKnTAVPJBYN1s3yAbB?##
?@@HCfPx21h2UbYEowp6q6CgFN7R9keeXUPpkKCuYuHD3AzmKDm8h69edu1Ao4p7vz6DvDr?##
?@@jfM9yZnIR/55qWqdm+RLXqAdDgEek/K2K7cY/uMwHI9kZx3i+vwrIYL2pMm8Tcnah232?##
?@@asagtKiSgXA3Z9AHBr7k+KOkhFW3RrAH77Fq2tfU1V3AT75CtyaTdHs4tA+UpCgjcU1r?##
?@@00118+W5Zh43HpptbrCh9zMeFUoCsjQ134+KIle61bjKFswOyHA/BF2DFmUG5taPqfKm?##
?@@1FaISxWfaCU2lZdaWagdRBhPrTxC0PsVi0aoYuX94KASCsWe+BuB4OJVxHwdSoG4iNy0?##
?@@0TxPQgo7fVo0gybZlz5NHqHmKYZ71mRr2JD0SDKEO/TVioK2BGpsI0ymUMIABp3iqK2M?##
?@@unaYUT/e04ynMAQIHI0V9oifmCAJU9GhaxbJrxvDOWSVz2gMRTy8JEvxW4ERHqnj8I31?##
?@@a8+0DOsnGanWV626mWC2UfkYUAUJOw+x93U5W0Kf7ekzHQoghYO22XfLkUGxIJQ7CsC3?##
?@@RH/Llma6EcnZO9W6NxJmwYpgFePx0wdxLnSEF1L2UFxEH2I/pYUp+Ud2FKF14OJask/C?##
?@@zRkC4DZUhWckMnOfZWB6dofUq0RreDptyTewY6eU4G7fuWWZebqc/IfbneCa19K0Qevg?##
?@@elDSOtqGvJ7vr+yJM+aYgeDERPNydm/RqUjBL7ryMOr5ZzbgQQA3rVaYVC0xNK0JUuJq?##
?@@szoS55FTZB9h/J3H4t2RzV8ebnGpTp5d+tEykDk46kFCuAPlInW5Dta79fCngegOS0/Z?##
?@@/K2EGsrodryYv6RwtkizGg29KTm9Pe0Ds4owqwVhCnoDqmwuRONuN2OhE4qT9kHata3x?##
?@@/baXcm5kal+u9alLPfsK52iiPwOA/xQNzqGTTUgbkaEXqJQyHHW8nh0PiC/+kq5aUsAq?##
?@@fnIem8vewm33kXmC6dCdmtd7Ipjgsx9VGS2QNRjNFXK/lI6VmYwHEToOvhEVejJSgXGJ?##
?@@C5WL6daCNb51eLHWWOLwqo9PzLcu1b90rxXRWiekkWYAF/BMZbU41Yyooq5/SUld5G0+?##
?@@SKIX916LOIhPuum/1GU3Lla0NDuFtM5bwhDYqOyJjEUKkUawcn+DJeaKYirwCuRPdG/k?##
?@@ab2NW8JENuBqs2l1VWeB8NX9kUIpL2hZzDSZDlkwAcw4yxkYjpGk69C7fCMYrSYHAgOR?##
?@@vpjks3pbynD26AXTgrkjrYuQxrViNjFv78Nh0A8WBeorZQNq6k2mwLorJF7Z7XYGgrE5?##
?@@VyM2JTvwUowhaKcWNrJTIrNkrVTWjamSsWYDGjGz6n4SZt09yUNuIhn27HHyJHw7+Yww?##
?@@ADe5Hd7KQ7J5XXE+qpV3wUcngi5Ba07cvETaZJwBy78wwxc2kUPpZ2L064FwEPFEIsfi?##
?@@PUNFK0xOodHiarlEqGnlcmm4PqHwFwd1Mg4StKF5XGxpY8oPp8GWtZoe5WwPrJ761uGG?##
?@@UvjWazoRgF2mBOvMAXaTIROY5ou2hp2ixtToypP/6etSdqGrOV0uqHYmlAr32YqhThZ+?##
?@@B3M+h242HUkafpmBX6BOJtG43gQS+hTLNHhJHi0zAGhiP+NRorrWEIRX1KtJN3c+KBRd?##
?@@TMRkWXOh+gU9SrWi4GD0zaFdWPHnrBETQGEPxfODzoj/KlgyKNRKK9WLwmjy8MjEekAy?##
?@@xdVqHUrVl81V2Lhw0iV+yaIQJScxydS/u6nAJ7g6UY0dzqISTi6k6OKc/sxeSRzzctXV?##
?@@Qm6l5USa73fWSaeKa2KUG7AtJA5IzDVVSCOmjsUF4lC0EHYndWrjBfJwfp8dOPEFI1bD?##
?@@dzaZMd7UYn5h0pBCyEhB2IWE2P5gsmVj0Ik21UoayMaqkgALAJnlKtimV+7629rb7mM+?##
?@@EMDqohcsMGuES692Mzw+QVo/n1pOH90OEwb65iWJy5GyM82ss2cFkb3pwcnj0ocICWNZ?##
?@@PUNFK2sLaYT76oJeTHVz90H0GKAS7sMzkFz88K5Fhh2hC2pcp/PATtVES+twBN/AzmFS?##
?@@Hjn1eIJOpdfFrq7NirxkFmHpSJDgc3wgwZ5eNvpBKoJtQjp/4EVA5nN9uio/zGol05dl?##
?@@v6H3C/f2nJON9fKPmtfRXm98eF72ayz2ZkGJ6HsMER/D+WTymgQeg5zJLrR6dZmsyNO4?##
?@@vIe+ArtwHRZihsHi/8krAgYLPChtaoR3EEtCxaRscO8nGQZpdOpmLIevhONH7mjxG5S8?##
?@@zRkC4E6SSbxFHL0qXMID7zZfg0QoE5iyowr2xO0Xrg7fJBB7RXo5ZqV3EUbRBTASdoE4?##
?@@MuVzX+LN/wGD9SCcCx5XjcXsaU6diaxCu4SVsbmGnNIEXuo8CWCOoZoC48efhlcgYwe2?##
?@@g51+VbHt2Pxto7MhIf8JH7fvXkAGoE54hhFhZAzevMWwMlhR0MFe8qIGUg6Cn0/PLm6B?##
?@@SKIX9y0qLBz3j3RUtkyLWj7W7VGR1JkPUB0Xhk0nOkbQNnWNiJFFjx6ZesWBVPEzjVC+?##
?@@9XH+r+08yCkcdwxb/yB8HNOf5JJv1XfdryHVsLVngiSouFxVfTG7kUJD8BmWujaC7trJ?##
?@@unaYUdgUVYyDwYjvfnlSWE7glQk1IH12/HuvrmEKDtX6b6u7poSA9fVwywBoffTcSmI+?##
?@@UwDpw6SO2Mj8fErsOiS47QRdxaO6AdtH/HFFA/sQ5fHxnqT2jgx43/6S2q0Pu+m3zhFu?##
?@@zBHviHsNQjQ+PETqncAjPnIVXzhCAlHLSmHqFtQqB+jAk4ZGLtlIYEO38XZmS84e27Ei?##
?@@JXV74ml/plD7kXUu1vdn61gwkuNH6TBA1YcKjUlpRxkx6NUxwytpnZY6Ck1stvULxWlD?##
?@@FvRdtZiL2WBcyBuGnuhrobK51GjwtO/BU5DAyckQSeUHb1pPQv5OEI7GcjZ+/sHSqq5G?##
?@@37RaF5sUGcYTYl/OM1MUAZkINW/Lk1ZwS6dDNR0Cnfs8HWaJJMAj4iDUnjk1OrllzXbe?##
?@@UOawutblobX39HukbmHSGPXoG6LsVfd7aeQOabXhAmbEvXXm45c9Otc9MzpMQnGqBfI5?##
?@@HTDiHxtlfZDRSJ7VQb7qH2eR9l9WIAko+DySV671qXtPU/y9oAiG4gLIDE6PIfbBR1p+?##